CBA2026/Algoritimo/34Bus/ieee34-1_Curr_Elem.Txt

CIRCUIT ELEMENT CURRENTS

(Currents into element from indicated bus)

Power Delivery Elements

  Bus     Phase    Magnitude, A     Angle      (Real)   +j  (Imag)

ELEMENT = "Vsource.SOURCE"
SOURCEBUS     1           12.086 /_ -164.2 =    -11.626 +j   -3.2999
SOURCEBUS     2           10.348 /_   83.7 =     1.1384 +j    10.285
SOURCEBUS     3           12.601 /_  -33.7 =     10.488 +j   -6.9853
------------
SOURCEBUS     0           12.086 /_   15.8 =     11.626 +j    3.2999
SOURCEBUS     0           10.348 /_  -96.3 =    -1.1384 +j   -10.285
SOURCEBUS     0           12.601 /_  146.3 =    -10.488 +j    6.9853

ELEMENT = "Transformer.SUBXF"
SOURCEBUS     1           12.086 /_   15.8 =     11.626 +j    3.2999
SOURCEBUS     2           10.348 /_  -96.3 =    -1.1384 +j   -10.285
SOURCEBUS     3           12.601 /_  146.3 =    -10.488 +j    6.9853
SOURCEBUS     0                0 /_    0.0 =          0 +j         0
------------
800           1           37.837 /_  165.8 =    -36.685 +j    9.2644
800           2           31.554 /_   52.7 =     19.117 +j    25.104
800           3            27.84 /_  -60.6 =     13.654 +j   -24.262
800           0           10.837 /_  -68.8 =      3.914 +j   -10.106

ELEMENT = "Line.L1"
800           1           37.837 /_  -14.2 =     36.685 +j   -9.2644
800           2           31.554 /_ -127.3 =    -19.117 +j   -25.104
800           3            27.84 /_  119.4 =    -13.654 +j    24.262
------------
802           1           37.852 /_  165.8 =    -36.688 +j     9.313
802           2           31.554 /_   52.6 =     19.154 +j    25.076
802           3           27.843 /_  -60.7 =     13.619 +j   -24.285

ELEMENT = "Line.L2"
802           1           37.852 /_  -14.2 =     36.688 +j    -9.313
802           2           30.506 /_ -126.7 =    -18.225 +j   -24.464
802           3           27.012 /_  120.2 =    -13.607 +j    23.335
------------
806           1           37.862 /_  165.7 =    -36.691 +j    9.3456
806           2           30.506 /_   53.3 =     18.249 +j    24.445
806           3           27.014 /_  -59.8 =     13.583 +j   -23.351

ELEMENT = "Line.L3"
806           1           37.862 /_  -14.3 =     36.691 +j   -9.3456
806           2           29.462 /_ -126.0 =     -17.32 +j   -23.833
806           3           26.191 /_  121.2 =    -13.572 +j      22.4
------------
808           1           38.053 /_  164.8 =     -36.73 +j    9.9459
808           2           29.452 /_   52.9 =     17.771 +j    23.487
808           3           26.211 /_  -59.9 =     13.134 +j   -22.683

ELEMENT = "Line.L4"
808           2          0.59808 /_ -142.2 =   -0.47261 +j  -0.36652
------------
810           2          0.62675 /_   31.9 =    0.53211 +j   0.33119

ELEMENT = "Line.L5"
808           1           38.053 /_  -15.2 =      36.73 +j   -9.9459
808           2           28.292 /_ -126.3 =    -16.766 +j   -22.789
808           3           26.211 /_  120.1 =    -13.134 +j    22.683
------------
812           1           38.275 /_  163.9 =    -36.769 +j    10.629
812           2            28.28 /_   52.3 =      17.28 +j    22.387
812           3           26.242 /_  -61.2 =     12.629 +j   -23.004

ELEMENT = "Line.L6"
812           1           38.275 /_  -16.1 =     36.769 +j   -10.629
812           2            28.28 /_ -127.7 =     -17.28 +j   -22.387
812           3           26.242 /_  118.8 =    -12.629 +j    23.004
------------
814           1           38.451 /_  163.1 =    -36.796 +j    11.159
814           2           28.277 /_   51.3 =      17.68 +j    22.069
814           3           26.271 /_  -62.3 =     12.231 +j    -23.25

ELEMENT = "Line.L7"
814R          1           36.403 /_  -16.9 =     34.836 +j   -10.564
814R          2           28.102 /_ -128.7 =    -17.569 +j   -21.933
814R          3           26.108 /_  117.8 =    -12.156 +j    23.105
------------
850           1           36.403 /_  163.1 =    -34.836 +j    10.564
850           2           28.102 /_   51.3 =     17.569 +j    21.933
850           3           26.108 /_  -62.3 =     12.156 +j   -23.105

ELEMENT = "Line.L8"
816           1           12.942 /_  -25.9 =      11.64 +j   -5.6588
------------
818           1           12.951 /_  154.0 =    -11.639 +j     5.679

ELEMENT = "Line.L9"
816           1           23.711 /_  -12.0 =     23.197 +j   -4.9103
816           2           27.997 /_ -128.8 =     -17.53 +j    -21.83
816           3           26.041 /_  117.9 =    -12.195 +j    23.009
------------
824           1           23.756 /_  167.6 =    -23.204 +j      5.09
824           2           27.997 /_   50.9 =     17.661 +j    21.724
824           3           26.052 /_  -62.4 =     12.064 +j    -23.09

ELEMENT = "Line.L10"
818           1           11.598 /_  -25.8 =     10.445 +j   -5.0411
------------
820           1           11.839 /_  151.8 =    -10.429 +j    5.6016

ELEMENT = "Line.L11"
820           1           5.2309 /_  -27.5 =     4.6408 +j   -2.4137
------------
822           1           5.3017 /_  151.0 =    -4.6364 +j    2.5715

ELEMENT = "Line.L12"
824           2           1.5399 /_ -147.5 =    -1.2992 +j  -0.82669
------------
826           2           1.5554 /_   31.3 =     1.3291 +j   0.80791

ELEMENT = "Line.L13"
824           1           23.756 /_  -12.4 =     23.204 +j     -5.09
824           2           24.986 /_ -126.9 =    -14.989 +j    -19.99
824           3           25.846 /_  117.9 =    -12.102 +j    22.838
------------
828           1           23.759 /_  167.6 =    -23.204 +j    5.1047
828           2           24.985 /_   53.1 =         15 +j    19.981
828           3           25.847 /_  -62.1 =     12.091 +j   -22.844

ELEMENT = "Line.L14"
828           1           23.505 /_  -12.3 =     22.968 +j   -4.9957
828           2           24.985 /_ -126.9 =        -15 +j   -19.981
828           3           25.708 /_  118.0 =    -12.085 +j    22.691
------------
830           1           23.597 /_  166.9 =    -22.982 +j     5.352
830           2           24.973 /_   52.3 =     15.259 +j    19.769
830           3           25.729 /_  -62.6 =     11.823 +j   -22.851

ELEMENT = "Line.L15"
830           1           22.084 /_  -11.4 =     21.645 +j   -4.3799
830           2           24.249 /_ -127.0 =    -14.592 +j   -19.367
830           3           24.409 /_  117.8 =    -11.393 +j    21.587
------------
854           1           22.086 /_  168.5 =    -21.646 +j    4.3889
854           2           24.248 /_   53.0 =     14.598 +j    19.361
854           3            24.41 /_  -62.2 =     11.386 +j   -21.591

ELEMENT = "Line.L16"
832           1           10.377 /_    7.5 =     10.289 +j    1.3534
832           2           12.728 /_ -107.9 =    -3.9065 +j   -12.114
832           3           13.928 /_  139.6 =    -10.603 +j    9.0313
------------
858           1           10.369 /_ -173.0 =    -10.291 +j   -1.2651
858           2           12.697 /_   71.8 =     3.9699 +j    12.061
858           3           13.904 /_  -40.7 =     10.538 +j   -9.0701

ELEMENT = "Line.L17"
834           1           8.4607 /_  -38.4 =     6.6276 +j    -5.259
834           2           8.3547 /_ -154.2 =     -7.525 +j   -3.6297
834           3           7.8898 /_   96.4 =   -0.88591 +j    7.8399
------------
860           1           8.4841 /_  141.4 =    -6.6287 +j    5.2954
860           2           8.3687 /_   25.5 =      7.551 +j    3.6078
860           3           7.9026 /_  -83.8 =     0.8591 +j   -7.8558

ELEMENT = "Line.L18"
834           1           9.2772 /_   82.0 =     1.2927 +j    9.1866
834           2            8.702 /_  -58.0 =     4.6171 +j   -7.3761
834           3           8.8758 /_ -163.9 =    -8.5285 +j   -2.4589
------------
842           1           9.2722 /_  -98.0 =    -1.2929 +j   -9.1816
842           2           8.6975 /_  122.0 =    -4.6135 +j    7.3731
842           3           8.8717 /_   16.1 =     8.5247 +j    2.4567

ELEMENT = "Line.L19"
836           1           1.1238 /_  -25.7 =     1.0123 +j  -0.48817
836           2           1.5534 /_ -153.1 =    -1.3854 +j  -0.70263
836           3           1.2605 /_   72.7 =    0.37539 +j    1.2034
------------
840           1            1.131 /_  153.6 =    -1.0127 +j   0.50362
840           2           1.5591 /_   26.4 =     1.3965 +j    0.6933
840           3           1.2704 /_ -107.7 =   -0.38681 +j   -1.2101

ELEMENT = "Line.L20"
836           1        0.0050338 /_   91.7 =  -0.00014668 +j 0.0050316
836           2           2.0833 /_ -148.1 =    -1.7687 +j   -1.1009
836           3         0.004318 /_ -149.4 =  -0.0037151 +j -0.0022007
------------
862           1       1.819E-011 /_  143.1 =  -1.4552E-011 +j 1.0914E-011
862           2           2.0847 /_   31.8 =     1.7723 +j    1.0978
862           3      2.6234E-011 /_ -146.3 =  -2.1828E-011 +j -1.4552E-011

ELEMENT = "Line.L21"
842           1           9.4116 /_   83.9 =    0.99934 +j    9.3584
842           2           8.6975 /_  -58.0 =     4.6135 +j   -7.3731
842           3           8.8717 /_ -163.9 =    -8.5247 +j   -2.4567
------------
844           1           9.3876 /_  -96.1 =         -1 +j   -9.3342
844           2           8.6759 /_  122.0 =    -4.5961 +j    7.3584
844           3           8.8515 /_   16.0 =     8.5068 +j     2.446

ELEMENT = "Line.L22"
844           1           9.9831 /_   80.3 =     1.6833 +j    9.8402
844           2           9.4175 /_  -56.7 =     5.1747 +j   -7.8684
844           3            9.623 /_ -164.7 =    -9.2839 +j    -2.532
------------
846           1           9.9189 /_  -99.8 =    -1.6851 +j   -9.7747
846           2           9.3587 /_  123.2 =    -5.1278 +j    7.8289
846           3           9.5688 /_   15.2 =     9.2355 +j    2.5034

ELEMENT = "Line.L23"
846           1           9.9189 /_   80.2 =     1.6851 +j    9.7747
846           2           9.5906 /_  -46.0 =     6.6612 +j   -6.8998
846           3           9.8164 /_ -160.5 =    -9.2554 +j    -3.271
------------
848           1           9.9096 /_  -99.8 =    -1.6854 +j   -9.7652
848           2           9.5817 /_  134.0 =    -6.6544 +j    6.8941
848           3           9.8084 /_   19.5 =     9.2484 +j    3.2668

ELEMENT = "Line.L24"
850           1           36.403 /_  -16.9 =     34.836 +j   -10.564
850           2           28.102 /_ -128.7 =    -17.569 +j   -21.933
850           3           26.108 /_  117.7 =    -12.156 +j    23.105
------------
816           1           36.404 /_  163.1 =    -34.836 +j    10.569
816           2           28.102 /_   51.3 =     17.573 +j    21.929
816           3           26.109 /_  -62.3 =     12.152 +j   -23.108

ELEMENT = "Line.L25"
852R          1           20.932 /_  -13.0 =     20.392 +j    -4.724
852R          2           22.689 /_ -128.8 =    -14.215 +j   -17.684
852R          3           23.145 /_  116.5 =    -10.339 +j    20.707
------------
832           1           20.932 /_  167.0 =    -20.392 +j    4.7242
832           2           22.689 /_   51.2 =     14.215 +j    17.684
832           3           23.145 /_  -63.5 =     10.339 +j   -20.707

ELEMENT = "Transformer.XFM1"
832           1           11.699 /_  -31.1 =      10.02 +j   -6.0383
832           2           11.691 /_ -151.6 =    -10.286 +j   -5.5569
832           3           11.598 /_   88.7 =    0.26532 +j    11.595
832           0       0.00034134 /_   38.7 =  0.00026634 +j 0.00021347
------------
888           1           70.024 /_  148.9 =    -59.975 +j    36.142
888           2           69.975 /_   28.4 =     61.565 +j    33.261
888           3            69.42 /_  -91.3 =     -1.588 +j   -69.402
888           0        0.0020431 /_ -141.3 =  -0.0015942 +j -0.0012778

ELEMENT = "Line.L26"
854           2          0.24275 /_  -67.4 =   0.093236 +j  -0.22413
------------
856           2          0.15547 /_   31.0 =    0.13331 +j  0.079993

ELEMENT = "Line.L27"
854           1           22.086 /_  -11.5 =     21.646 +j   -4.3889
854           2           23.982 /_ -127.4 =    -14.558 +j   -19.057
854           3            24.41 /_  117.8 =    -11.386 +j    21.591
------------
852           1           22.241 /_  167.0 =    -21.667 +j    5.0207
852           2           23.966 /_   51.2 =     15.016 +j    18.678
852           3           24.446 /_  -63.5 =      10.92 +j   -21.872

ELEMENT = "Line.L28"
858           1           0.0679 /_  -13.7 =    0.06598 +j -0.016034
------------
864           1         0.074341 /_  151.5 =  -0.065309 +j  0.035516

ELEMENT = "Line.L29"
858           1           9.9788 /_    9.2 =     9.8492 +j    1.6032
858           2           12.327 /_ -107.4 =    -3.6912 +j   -11.762
858           3           13.533 /_  141.3 =    -10.565 +j    8.4571
------------
834           1           9.9656 /_ -171.4 =    -9.8523 +j   -1.4983
834           2            12.29 /_   72.2 =     3.7664 +j    11.699
834           3           13.502 /_  -39.0 =     10.488 +j   -8.5031

ELEMENT = "Line.L30"
860           1            2.801 /_  -25.8 =     2.5229 +j   -1.2169
860           2           5.1638 /_ -151.5 =    -4.5378 +j   -2.4642
860           3            2.605 /_   84.7 =    0.24225 +j    2.5937
------------
836           1           2.8235 /_  153.4 =    -2.5243 +j    1.2651
836           2           5.1804 /_   28.0 =     4.5724 +j    2.4352
836           3           2.6295 /_  -96.1 =   -0.27781 +j   -2.6148

ELEMENT = "Line.L31"
862           2           1.0302 /_ -146.7 =   -0.86127 +j  -0.56521
------------
838           2           1.0554 /_   30.3 =    0.91116 +j   0.53266

ELEMENT = "Line.L32"
888           1           70.024 /_  -31.1 =     59.975 +j   -36.142
888           2           69.975 /_ -151.6 =    -61.565 +j   -33.261
888           3            69.42 /_   88.7 =      1.588 +j    69.402
------------
890           1            70.04 /_  148.9 =    -59.976 +j    36.173
890           2           69.985 /_   28.4 =     61.587 +j    33.242
890           3           69.434 /_  -91.3 =     -1.611 +j   -69.415

ELEMENT = "Capacitor.C844"
844           1           7.2685 /_   88.0 =    0.25692 +j     7.264
844           2           7.1823 /_  -33.1 =      6.014 +j   -3.9265
844           3             7.19 /_ -152.6 =    -6.3849 +j    -3.306
------------
844           0           7.2685 /_  -92.0 =   -0.25692 +j    -7.264
844           0           7.1823 /_  146.9 =     -6.014 +j    3.9265
844           0             7.19 /_   27.4 =     6.3849 +j     3.306

ELEMENT = "Capacitor.C848"
848           1           10.906 /_   87.9 =    0.39515 +j    10.899
848           2           10.774 /_  -33.2 =     9.0157 +j   -5.8981
848           3           10.788 /_ -152.7 =    -9.5853 +j    -4.951
------------
848           0           10.906 /_  -92.1 =   -0.39515 +j   -10.899
848           0           10.774 /_  146.8 =    -9.0157 +j    5.8981
848           0           10.788 /_   27.3 =     9.5853 +j     4.951

ELEMENT = "Transformer.REG1A"
814           1           38.451 /_  -16.9 =     36.796 +j   -11.159
814           0            38.45 /_  163.1 =    -36.796 +j    11.158
------------
814R          1           36.403 /_  163.1 =    -34.836 +j    10.564
814R          0           36.403 /_  -16.9 =     34.836 +j   -10.564

ELEMENT = "Transformer.REG1B"
814           2           28.277 /_ -128.7 =     -17.68 +j   -22.069
814           0           28.277 /_   51.3 =     17.679 +j    22.069
------------
814R          2           28.102 /_   51.3 =     17.569 +j    21.933
814R          0           28.102 /_ -128.7 =    -17.569 +j   -21.932

ELEMENT = "Transformer.REG1C"
814           3           26.271 /_  117.7 =    -12.231 +j     23.25
814           0           26.271 /_  -62.3 =     12.232 +j    -23.25
------------
814R          3           26.108 /_  -62.2 =     12.156 +j   -23.105
814R          0           26.108 /_  117.7 =    -12.156 +j    23.106

ELEMENT = "Transformer.REG2A"
852           1           22.241 /_  -13.0 =     21.667 +j   -5.0207
852           0           22.241 /_  167.0 =    -21.667 +j      5.02
------------
852R          1           20.932 /_  167.0 =    -20.392 +j     4.724
852R          0           20.932 /_  -13.0 =     20.392 +j   -4.7247

ELEMENT = "Transformer.REG2B"
852           2           23.966 /_ -128.8 =    -15.016 +j   -18.678
852           0           23.966 /_   51.2 =     15.015 +j    18.679
------------
852R          2           22.689 /_   51.2 =     14.215 +j    17.684
852R          0           22.689 /_ -128.8 =    -14.216 +j   -17.684

ELEMENT = "Transformer.REG2C"
852           3           24.446 /_  116.5 =     -10.92 +j    21.872
852           0           24.446 /_  -63.5 =      10.92 +j   -21.872
------------
852R          3           23.145 /_  -63.5 =     10.339 +j   -20.707
852R          0           23.145 /_  116.5 =    -10.339 +j    20.707

= = = = = = = = = = = = = = = = = = =  = = = = = = = = = = =  = =

Power Conversion Elements

  Bus     Phase    Magnitude, A     Angle      (Real)   +j  (Imag)

ELEMENT = "Load.S860"
860           1           1.7059 /_  -40.7 =      1.294 +j   -1.1115
860           2           1.7261 /_ -161.8 =    -1.6396 +j  -0.53967
860           3           1.7244 /_   78.7 =    0.33693 +j    1.6912
860           0          0.04094 /_  -77.8 =  0.0086447 +j -0.040017

ELEMENT = "Load.S840"
840           1          0.79311 /_  -39.9 =    0.60868 +j  -0.50845
840           2          0.79311 /_ -161.0 =   -0.74989 +j  -0.25824
840           3          0.79311 /_   79.5 =    0.14428 +j   0.77987
840           0         0.013532 /_ -103.2 =  -0.0030803 +j -0.013177

ELEMENT = "Load.S844"
844           1           12.432 /_  -39.9 =     9.5372 +j   -7.9744
844           2           12.284 /_ -161.0 =    -11.616 +j   -3.9961
844           3           12.297 /_   79.5 =     2.2412 +j    12.091
844           0          0.20265 /_ -143.5 =   -0.16281 +j  -0.12067

ELEMENT = "Load.S848"
848           1           1.7176 /_  -41.3 =     1.2903 +j   -1.1337
848           2           1.7177 /_ -161.3 =    -1.6272 +j  -0.55048
848           3           1.7176 /_   78.7 =    0.33687 +j    1.6842

ELEMENT = "Load.S830A"
830           1          0.45228 /_    1.3 =    0.45217 +j 0.0099522
830           2          0.45228 /_ -178.7 =   -0.45217 +j -0.0099522

ELEMENT = "Load.S830B"
830           2          0.44776 /_ -118.7 =   -0.21506 +j  -0.39273
830           3          0.44776 /_   61.3 =    0.21506 +j   0.39273

ELEMENT = "Load.S830C"
830           3           1.0844 /_  126.5 =   -0.64561 +j   0.87125
830           1           1.0844 /_  -53.5 =    0.64561 +j  -0.87125

ELEMENT = "Load.S890"
890           1           70.046 /_  -31.1 =     59.981 +j   -36.176
890           2           69.989 /_ -151.6 =     -61.59 +j   -33.243
890           3           69.437 /_   88.7 =     1.6091 +j    69.418

ELEMENT = "Load.D802_806SB"
802           2           1.1122 /_ -146.6 =   -0.92866 +j  -0.61195
802           0           1.1122 /_   33.4 =    0.92866 +j   0.61195

ELEMENT = "Load.D802_806RB"
806           2           1.1129 /_ -146.7 =   -0.92962 +j   -0.6118
806           0           1.1129 /_   33.3 =    0.92962 +j    0.6118

ELEMENT = "Load.D802_806SC"
802           3          0.95001 /_   90.7 =  -0.011875 +j   0.94994
802           0          0.95001 /_  -89.3 =   0.011875 +j  -0.94994

ELEMENT = "Load.D802_806RC"
806           3           0.9506 /_   90.7 =  -0.011515 +j   0.95053
806           0           0.9506 /_  -89.3 =   0.011515 +j  -0.95053

ELEMENT = "Load.D808_810SB"
808           2          0.62677 /_ -148.1 =   -0.53214 +j  -0.33117
808           0          0.62677 /_   31.9 =    0.53214 +j   0.33117

ELEMENT = "Load.D808_810RB"
810           2          0.62675 /_ -148.1 =   -0.53211 +j  -0.33119
810           0          0.62675 /_   31.9 =    0.53211 +j   0.33119

ELEMENT = "Load.D818_820SA"
818           1            1.354 /_  -28.1 =     1.1943 +j  -0.63793
818           0            1.354 /_  151.9 =    -1.1943 +j   0.63793

ELEMENT = "Load.D818_820RA"
820           1           1.3229 /_  -28.2 =     1.1662 +j  -0.62446
820           0           1.3229 /_  151.8 =    -1.1662 +j   0.62446

ELEMENT = "Load.D820_822SA"
820           1            5.286 /_  -29.0 =     4.6228 +j   -2.5635
820           0            5.286 /_  151.0 =    -4.6228 +j    2.5635

ELEMENT = "Load.D820_822RA"
822           1            5.302 /_  -29.0 =     4.6366 +j   -2.5716
822           0            5.302 /_  151.0 =    -4.6366 +j    2.5716

ELEMENT = "Load.D816_824SB"
816           2          0.10814 /_ -113.5 =  -0.043049 +j -0.099197
816           3          0.10814 /_   66.5 =   0.043049 +j  0.099197

ELEMENT = "Load.D816_824RB"
824           2          0.10814 /_ -113.6 =  -0.043307 +j -0.099085
824           3          0.10814 /_   66.4 =   0.043307 +j  0.099085

ELEMENT = "Load.D824_826SB"
824           2           1.5554 /_ -148.7 =    -1.3291 +j  -0.80792
824           0           1.5554 /_   31.3 =     1.3291 +j   0.80792

ELEMENT = "Load.D824_826RB"
826           2           1.5554 /_ -148.7 =    -1.3291 +j  -0.80791
826           0           1.5554 /_   31.3 =     1.3291 +j   0.80791

ELEMENT = "Load.D824_828SC"
824           3           0.1537 /_   92.0 =  -0.0053508 +j   0.15361
824           0           0.1537 /_  -88.0 =  0.0053508 +j  -0.15361

ELEMENT = "Load.D824_828RC"
828           3          0.15377 /_   92.0 =  -0.005315 +j   0.15368
828           0          0.15377 /_  -88.0 =   0.005315 +j  -0.15368

ELEMENT = "Load.D828_830SA"
828           1           0.2601 /_  -24.8 =    0.23612 +j  -0.10907
828           0           0.2601 /_  155.2 =   -0.23612 +j   0.10907

ELEMENT = "Load.D828_830RA"
830           1          0.26322 /_  -24.9 =    0.23873 +j  -0.11089
830           0          0.26322 /_  155.1 =   -0.23873 +j   0.11089

ELEMENT = "Load.D854_856SB"
854           2          0.15546 /_ -149.0 =   -0.13329 +j -0.080002
854           0          0.15546 /_   31.0 =    0.13329 +j  0.080002

ELEMENT = "Load.D854_856RB"
856           2          0.15547 /_ -149.0 =   -0.13331 +j -0.079994
856           0          0.15547 /_   31.0 =    0.13331 +j  0.079994

ELEMENT = "Load.D832_858SA"
832           1         0.092457 /_  -25.1 =   0.083698 +j  -0.03928
832           0         0.092457 /_  154.9 =  -0.083698 +j   0.03928

ELEMENT = "Load.D832_858RA"
858           1          0.09236 /_  -25.2 =    0.08359 +j -0.039283
858           0          0.09236 /_  154.8 =   -0.08359 +j  0.039283

ELEMENT = "Load.D832_858SB"
832           2         0.026836 /_ -149.6 =  -0.023135 +j -0.013599
832           0         0.026836 /_   30.4 =   0.023135 +j  0.013599

ELEMENT = "Load.D832_858RB"
858           2         0.026804 /_ -149.6 =  -0.023123 +j -0.013558
858           0         0.026804 /_   30.4 =   0.023123 +j  0.013558

ELEMENT = "Load.D832_858SC"
832           3          0.08054 /_   91.0 =  -0.0014026 +j  0.080528
832           0          0.08054 /_  -89.0 =  0.0014026 +j -0.080528

ELEMENT = "Load.D832_858RC"
858           3         0.080464 /_   90.9 =  -0.0012939 +j  0.080453
858           0         0.080464 /_  -89.1 =  0.0012939 +j -0.080453

ELEMENT = "Load.D858_864SB"
858           1         0.074346 /_  -28.5 =   0.065313 +j -0.035517
858           0         0.074346 /_  151.5 =  -0.065313 +j  0.035517

ELEMENT = "Load.D858_864RB"
864           1         0.074346 /_  -28.5 =   0.065313 +j -0.035518
864           0         0.074346 /_  151.5 =  -0.065313 +j  0.035518

ELEMENT = "Load.D858_834SA"
858           1         0.085883 /_    0.7 =   0.085876 +j  0.001103
858           2         0.085883 /_ -179.3 =  -0.085876 +j -0.001103

ELEMENT = "Load.D858_834RA"
834           1         0.085977 /_    0.7 =   0.085971 +j 0.0010193
834           2         0.085977 /_ -179.3 =  -0.085971 +j -0.0010193

ELEMENT = "Load.D858_834SB"
858           2          0.33094 /_ -120.8 =   -0.16967 +j  -0.28414
858           3          0.33094 /_   59.2 =    0.16967 +j   0.28414

ELEMENT = "Load.D858_834RB"
834           2          0.33131 /_ -120.9 =   -0.17024 +j  -0.28423
834           3          0.33131 /_   59.1 =    0.17024 +j   0.28423

ELEMENT = "Load.D858_834SC"
858           3          0.28577 /_  119.6 =   -0.14133 +j   0.24837
858           1          0.28577 /_  -60.4 =    0.14133 +j  -0.24837

ELEMENT = "Load.D858_834RC"
834           3          0.28616 /_  119.6 =   -0.14124 +j   0.24888
834           1          0.28616 /_  -60.4 =    0.14124 +j  -0.24888

ELEMENT = "Load.D834_860SA"
834           1          0.37519 /_    0.7 =    0.37516 +j 0.0044482
834           2          0.37519 /_ -179.3 =   -0.37516 +j -0.0044482

ELEMENT = "Load.D834_860RA"
860           1          0.37505 /_    0.7 =    0.37502 +j 0.0044692
860           2          0.37505 /_ -179.3 =   -0.37502 +j -0.0044692

ELEMENT = "Load.D834_860SB"
834           2          0.46264 /_ -119.4 =    -0.2272 +j  -0.40301
834           3          0.46264 /_   60.6 =     0.2272 +j   0.40301

ELEMENT = "Load.D834_860RB"
860           2          0.46247 /_ -119.4 =   -0.22712 +j  -0.40286
860           3          0.46247 /_   60.6 =    0.22712 +j   0.40286

ELEMENT = "Load.D834_860SC"
834           3           2.5586 /_  121.3 =    -1.3297 +j     2.186
834           1           2.5586 /_  -58.7 =     1.3297 +j    -2.186

ELEMENT = "Load.D834_860RC"
860           3           2.5575 /_  121.3 =    -1.3291 +j     2.185
860           1           2.5575 /_  -58.7 =     1.3291 +j    -2.185

ELEMENT = "Load.D860_836SA"
860           1          0.64507 /_    0.7 =    0.64503 +j 0.0076869
860           2          0.64507 /_ -179.3 =   -0.64503 +j -0.0076869

ELEMENT = "Load.D860_836RA"
836           1          0.64524 /_    0.7 =    0.64519 +j 0.0076669
836           2          0.64524 /_ -179.3 =   -0.64519 +j -0.0076669

ELEMENT = "Load.D860_836SB"
860           2          0.22736 /_ -123.8 =   -0.12652 +j  -0.18891
860           3          0.22736 /_   56.2 =    0.12652 +j   0.18891

ELEMENT = "Load.D860_836RB"
836           2          0.22742 /_ -123.8 =   -0.12654 +j  -0.18896
836           3          0.22742 /_   56.2 =    0.12654 +j   0.18896

ELEMENT = "Load.D860_836SC"
860           3          0.91934 /_  120.2 =   -0.46288 +j   0.79431
860           1          0.91934 /_  -59.8 =    0.46288 +j  -0.79431

ELEMENT = "Load.D860_836RC"
836           3           0.9195 /_  120.2 =   -0.46297 +j   0.79445
836           1           0.9195 /_  -59.8 =    0.46297 +j  -0.79445

ELEMENT = "Load.D836_840SA"
836           1          0.40411 /_    0.7 =    0.40408 +j 0.0048018
836           2          0.40411 /_ -179.3 =   -0.40408 +j -0.0048018

ELEMENT = "Load.D836_840RA"
840           1          0.40411 /_    0.7 =    0.40408 +j 0.0048012
840           2          0.40411 /_ -179.3 =   -0.40408 +j -0.0048012

ELEMENT = "Load.D836_840SB"
836           2          0.49391 /_ -119.4 =   -0.24253 +j  -0.43026
836           3          0.49391 /_   60.6 =    0.24253 +j   0.43026

ELEMENT = "Load.D836_840RB"
840           2          0.49391 /_ -119.4 =   -0.24253 +j  -0.43026
840           3          0.49391 /_   60.6 =    0.24253 +j   0.43026

ELEMENT = "Load.D862_838SB"
862           2           1.0553 /_ -149.7 =   -0.91101 +j  -0.53261
862           0           1.0553 /_   30.3 =    0.91101 +j   0.53261

ELEMENT = "Load.D862_838RB"
838           2           1.0554 /_ -149.7 =   -0.91117 +j  -0.53267
838           0           1.0554 /_   30.3 =    0.91117 +j   0.53267

ELEMENT = "Load.D842_844SA"
842           1          0.34271 /_  -31.1 =    0.29356 +j  -0.17684
842           0          0.34271 /_  148.9 =   -0.29356 +j   0.17684

ELEMENT = "Load.D842_844RA"
844           1          0.34267 /_  -31.1 =    0.29348 +j   -0.1769
844           0          0.34267 /_  148.9 =   -0.29348 +j    0.1769

ELEMENT = "Load.D844_846SB"
844           2          0.93409 /_ -148.8 =   -0.79883 +j  -0.48414
844           0          0.93409 /_   31.2 =    0.79883 +j   0.48414

ELEMENT = "Load.D844_846RB"
846           2           0.9341 /_ -148.8 =   -0.79923 +j  -0.48351
846           0           0.9341 /_   31.2 =    0.79923 +j   0.48351

ELEMENT = "Load.D844_846SC"
844           3          0.76802 /_   88.6 =   0.019256 +j   0.76778
844           0          0.76802 /_  -91.4 =  -0.019256 +j  -0.76778

ELEMENT = "Load.D844_846RC"
846           3          0.76781 /_   88.5 =   0.019923 +j   0.76755
846           0          0.76781 /_  -91.5 =  -0.019923 +j  -0.76755

ELEMENT = "Load.D846_848SB"
846           2          0.85879 /_ -148.7 =   -0.73416 +j  -0.44556
846           0          0.85879 /_   31.3 =    0.73416 +j   0.44556

ELEMENT = "Load.D846_848RB"
848           2          0.85877 /_ -148.8 =    -0.7342 +j  -0.44547
848           0          0.85877 /_   31.2 =     0.7342 +j   0.44547

ELEMENT = "Storage.BESS844"
844           1           10.777 /_  178.0 =    -10.771 +j   0.38088
844           2           10.649 /_   56.9 =     5.8217 +j    8.9167
844           3           10.661 /_  -62.6 =     4.9017 +j   -9.4668
844           0          0.17568 /_   74.4 =   0.047184 +j   0.16922

