CBA2026/Algoritimo/34Bus/ieee34-1_Power_elem_kVA.txt

CIRCUIT ELEMENT POWER FLOW

(Power Flow into element from indicated Bus)

Power Delivery Elements

  Bus     Phase     kW     +j   kvar         kVA         PF

ELEMENT = "Vsource.SOURCE"
SOURCEBUS     1      -490.2 +j   -123.6      505.5       0.9696
SOURCEBUS     2      -430.2 +j    -47.6      432.8       0.9939
SOURCEBUS     3      -526.0 +j    -33.7      527.1       0.9980
   TERMINAL TOTAL . -1446.4 +j   -204.9     1460.9       0.9901
SOURCEBUS     0         0.0 +j      0.0        0.0       1.0000
SOURCEBUS     0         0.0 +j      0.0        0.0       1.0000
SOURCEBUS     0         0.0 +j      0.0        0.0       1.0000
   TERMINAL TOTAL .     0.0 +j      0.0        0.0       1.0000

ELEMENT = "Transformer.SUBXF"
SOURCEBUS     1       490.2 +j    123.6      505.5       0.9696
SOURCEBUS     2       430.2 +j     47.6      432.8       0.9939
SOURCEBUS     3       526.0 +j     33.7      527.1       0.9980
SOURCEBUS     0         0.0 +j      0.0        0.0       1.0000
   TERMINAL TOTAL .  1446.4 +j    204.9     1460.9       0.9901
800           1      -553.8 +j   -139.8      571.1       0.9696
800           2      -472.4 +j    -60.4      476.3       0.9919
800           3      -420.2 +j     -4.6      420.2       0.9999
800           0         0.0 +j      0.0        0.0       1.0000
   TERMINAL TOTAL . -1446.4 +j   -204.9     1460.9       0.9901

ELEMENT = "Line.L1"
800           1       553.8 +j    139.8      571.1       0.9696
800           2       472.4 +j     60.4      476.3       0.9919
800           3       420.2 +j      4.6      420.2       0.9999
   TERMINAL TOTAL .  1446.4 +j    204.9     1460.9       0.9901
802           1      -552.9 +j   -140.0      570.3       0.9694
802           2      -471.9 +j    -60.6      475.8       0.9918
802           3      -419.9 +j     -5.0      419.9       0.9999
   TERMINAL TOTAL . -1444.7 +j   -205.6     1459.2       0.9900

ELEMENT = "Line.L2"
802           1       552.9 +j    140.0      570.3       0.9694
802           2       456.9 +j     53.1      460.0       0.9933
802           3       407.4 +j     -2.0      407.4      -1.0000
   TERMINAL TOTAL .  1417.2 +j    191.1     1430.0       0.9910
806           1      -552.3 +j   -140.1      569.8       0.9693
806           2      -456.6 +j    -53.3      459.7       0.9933
806           3      -407.1 +j      1.7      407.1      -1.0000
   TERMINAL TOTAL . -1416.0 +j   -191.6     1428.9       0.9910

ELEMENT = "Line.L3"
806           1       552.3 +j    140.1      569.8       0.9693
806           2       441.6 +j     45.8      444.0       0.9947
806           3       394.6 +j     -8.7      394.7      -0.9998
   TERMINAL TOTAL .  1388.5 +j    177.1     1399.8       0.9920
808           1      -541.1 +j   -141.3      559.2       0.9675
808           2      -436.1 +j    -48.9      438.8       0.9938
808           3      -390.6 +j      3.6      390.7      -1.0000
   TERMINAL TOTAL . -1367.8 +j   -186.7     1380.5       0.9908

ELEMENT = "Line.L4"
808           2         8.3 +j      3.3        8.9       0.9304
   TERMINAL TOTAL .     8.3 +j      3.3        8.9       0.9304
810           2        -8.3 +j     -4.3        9.3       0.8879
   TERMINAL TOTAL .    -8.3 +j     -4.3        9.3       0.8879

ELEMENT = "Line.L5"
808           1       541.1 +j    141.3      559.2       0.9675
808           2       419.5 +j     41.4      421.6       0.9952
808           3       390.6 +j     -3.6      390.7      -1.0000
   TERMINAL TOTAL .  1351.2 +j    179.1     1363.1       0.9913
812           1      -528.0 +j   -142.0      546.8       0.9657
812           2      -413.8 +j    -45.3      416.2       0.9940
812           3      -385.8 +j     -2.3      385.8       1.0000
   TERMINAL TOTAL . -1327.6 +j   -189.6     1341.1       0.9900

ELEMENT = "Line.L6"
812           1       528.0 +j    142.0      546.8       0.9657
812           2       413.8 +j     45.3      416.2       0.9940
812           3       385.8 +j      2.3      385.8       1.0000
   TERMINAL TOTAL .  1327.6 +j    189.6     1341.1       0.9900
814           1      -517.5 +j   -142.0      536.7       0.9643
814           2      -409.3 +j    -48.3      412.1       0.9931
814           3      -381.9 +j     -6.7      382.0       0.9998
   TERMINAL TOTAL . -1308.7 +j   -197.1     1323.5       0.9889

ELEMENT = "Line.L7"
814R          1       517.5 +j    141.9      536.6       0.9644
814R          2       409.2 +j     48.2      412.1       0.9931
814R          3       381.9 +j      6.6      382.0       0.9998
   TERMINAL TOTAL .  1308.6 +j    196.7     1323.3       0.9889
850           1      -517.5 +j   -141.9      536.6       0.9644
850           2      -409.2 +j    -48.2      412.1       0.9931
850           3      -381.9 +j     -6.6      382.0       0.9998
   TERMINAL TOTAL . -1308.6 +j   -196.7     1323.3       0.9889

ELEMENT = "Line.L8"
816           1       173.7 +j     78.7      190.7       0.9108
   TERMINAL TOTAL .   173.7 +j     78.7      190.7       0.9108
818           1      -173.5 +j    -79.0      190.7       0.9102
   TERMINAL TOTAL .  -173.5 +j    -79.0      190.7       0.9102

ELEMENT = "Line.L9"
816           1       343.6 +j     63.1      349.4       0.9835
816           2       407.6 +j     48.5      410.5       0.9930
816           3       380.9 +j      5.4      380.9       0.9999
   TERMINAL TOTAL .  1132.1 +j    117.0     1138.1       0.9947
824           1      -341.8 +j    -65.1      347.9       0.9823
824           2      -404.7 +j    -49.5      407.7       0.9926
824           3      -378.9 +j     -6.5      379.0       0.9999
   TERMINAL TOTAL . -1125.4 +j   -121.0     1131.9       0.9943

ELEMENT = "Line.L10"
818           1       155.7 +j     70.0      170.7       0.9120
   TERMINAL TOTAL .   155.7 +j     70.0      170.7       0.9120
820           1      -152.2 +j    -76.3      170.3       0.8939
   TERMINAL TOTAL .  -152.2 +j    -76.3      170.3       0.8939

ELEMENT = "Line.L11"
820           1        67.7 +j     32.8       75.2       0.8997
   TERMINAL TOTAL .    67.7 +j     32.8       75.2       0.8997
822           1       -67.5 +j    -35.0       76.0       0.8878
   TERMINAL TOTAL .   -67.5 +j    -35.0       76.0       0.8878

ELEMENT = "Line.L12"
824           2        20.3 +j      9.6       22.4       0.9034
   TERMINAL TOTAL .    20.3 +j      9.6       22.4       0.9034
826           2       -20.3 +j    -10.1       22.6       0.8944
   TERMINAL TOTAL .   -20.3 +j    -10.1       22.6       0.8944

ELEMENT = "Line.L13"
824           1       341.8 +j     65.1      347.9       0.9823
824           2       362.6 +j     30.0      363.9       0.9966
824           3       376.0 +j      4.2      376.0       0.9999
   TERMINAL TOTAL .  1080.4 +j     99.3     1085.0       0.9958
828           1      -341.7 +j    -65.2      347.8       0.9823
828           2      -362.4 +j    -30.1      363.7       0.9966
828           3      -375.8 +j     -4.3      375.8       0.9999
   TERMINAL TOTAL . -1079.9 +j    -99.6     1084.5       0.9958

ELEMENT = "Line.L14"
828           1       338.2 +j     63.7      344.1       0.9827
828           2       362.4 +j     30.1      363.7       0.9966
828           3       373.8 +j      3.3      373.8       1.0000
   TERMINAL TOTAL .  1074.4 +j     97.1     1078.8       0.9959
830           1      -334.6 +j    -67.4      341.3       0.9803
830           2      -357.8 +j    -32.6      359.3       0.9959
830           3      -369.9 +j     -5.4      369.9       0.9999
   TERMINAL TOTAL . -1062.4 +j   -105.5     1067.6       0.9951

ELEMENT = "Line.L15"
830           1       314.9 +j     53.9      319.5       0.9856
830           2       347.8 +j     27.6      348.9       0.9969
830           3       351.0 +j      2.3      351.0       1.0000
   TERMINAL TOTAL .  1013.6 +j     83.9     1017.1       0.9966
854           1      -314.8 +j    -54.0      319.4       0.9856
854           2      -347.7 +j    -27.7      348.8       0.9968
854           3      -350.9 +j     -2.3      350.9       1.0000
   TERMINAL TOTAL . -1013.3 +j    -84.1     1016.8       0.9966

ELEMENT = "Line.L16"
832           1       154.1 +j    -25.6      156.2      -0.9865
832           2       182.9 +j    -49.4      189.4      -0.9654
832           3       192.2 +j    -77.7      207.4      -0.9271
   TERMINAL TOTAL .   529.2 +j   -152.7      550.8      -0.9608
858           1      -154.0 +j     24.3      155.9      -0.9877
858           2      -182.4 +j     48.3      188.7      -0.9667
858           3      -192.0 +j     76.8      206.8      -0.9285
   TERMINAL TOTAL .  -528.5 +j    149.4      549.2      -0.9623

ELEMENT = "Line.L17"
834           1       102.3 +j     75.5      127.1       0.8046
834           2       106.2 +j     64.1      124.0       0.8560
834           3       109.5 +j     41.9      117.2       0.9339
   TERMINAL TOTAL .   317.9 +j    181.5      366.0       0.8684
860           1      -102.2 +j    -76.0      127.4       0.8026
860           2      -106.1 +j    -64.6      124.2       0.8541
860           3      -109.5 +j    -42.4      117.4       0.9326
   TERMINAL TOTAL .  -317.8 +j   -182.9      366.6       0.8667

ELEMENT = "Line.L18"
834           1        14.6 +j   -138.6      139.3      -0.1046
834           2        54.3 +j   -117.2      129.2      -0.4200
834           3        25.9 +j   -129.3      131.9      -0.1962
   TERMINAL TOTAL .    94.7 +j   -385.1      396.6      -0.2388
842           1       -14.6 +j    138.5      139.3      -0.1046
842           2       -54.2 +j    117.2      129.1      -0.4201
842           3       -25.9 +j    129.3      131.8      -0.1962
   TERMINAL TOTAL .   -94.7 +j    384.9      396.4      -0.2388

ELEMENT = "Line.L19"
836           1        15.4 +j      6.8       16.9       0.9153
836           2        20.0 +j     11.5       23.0       0.8662
836           3        13.3 +j     13.2       18.7       0.7106
   TERMINAL TOTAL .    48.7 +j     31.5       58.0       0.8398
840           1       -15.5 +j     -7.0       17.0       0.9104
840           2       -19.9 +j    -11.7       23.1       0.8619
840           3       -13.3 +j    -13.4       18.9       0.7056
   TERMINAL TOTAL .   -48.7 +j    -32.1       58.3       0.8348

ELEMENT = "Line.L20"
836           1        -0.0 +j     -0.1        0.1       0.0640
836           2        28.0 +j     13.0       30.9       0.9065
836           3        -0.0 +j     -0.1        0.1       0.0566
   TERMINAL TOTAL .    28.0 +j     12.9       30.8       0.9081
862           1        -0.0 +j     -0.0        0.0       0.8204
862           2       -28.0 +j    -13.1       30.9       0.9056
862           3        -0.0 +j     -0.0        0.0       0.1097
   TERMINAL TOTAL .   -28.0 +j    -13.1       30.9       0.9056

ELEMENT = "Line.L21"
842           1        10.1 +j   -141.0      141.4      -0.0712
842           2        54.2 +j   -117.2      129.1      -0.4201
842           3        25.9 +j   -129.3      131.8      -0.1962
   TERMINAL TOTAL .    90.2 +j   -387.4      397.8      -0.2267
844           1       -10.1 +j    140.7      141.0      -0.0713
844           2       -54.2 +j    116.8      128.8      -0.4206
844           3       -25.8 +j    129.0      131.5      -0.1965
   TERMINAL TOTAL .   -90.1 +j    386.5      396.8      -0.2270

ELEMENT = "Line.L22"
844           1        20.0 +j   -148.6      150.0      -0.1337
844           2        55.8 +j   -128.2      139.8      -0.3992
844           3        30.0 +j   -139.8      143.0      -0.2099
   TERMINAL TOTAL .   105.9 +j   -416.6      429.8      -0.2463
846           1       -20.0 +j    147.7      149.0      -0.1342
846           2       -55.6 +j    127.3      138.9      -0.4002
846           3       -30.0 +j    139.0      142.2      -0.2106
   TERMINAL TOTAL .  -105.5 +j    414.0      427.3      -0.2470

ELEMENT = "Line.L23"
846           1        20.0 +j   -147.7      149.0      -0.1342
846           2        31.6 +j   -138.8      142.4      -0.2219
846           3        20.0 +j   -144.5      145.9      -0.1368
   TERMINAL TOTAL .    71.5 +j   -431.0      436.9      -0.1637
848           1       -20.0 +j    147.6      148.9      -0.1343
848           2       -31.6 +j    138.7      142.2      -0.2219
848           3       -19.9 +j    144.4      145.8      -0.1368
   TERMINAL TOTAL .   -71.5 +j    430.7      436.6      -0.1638

ELEMENT = "Line.L24"
850           1       517.5 +j    141.9      536.6       0.9644
850           2       409.2 +j     48.2      412.1       0.9931
850           3       381.9 +j      6.6      382.0       0.9998
   TERMINAL TOTAL .  1308.6 +j    196.7     1323.3       0.9889
816           1      -517.3 +j   -141.9      536.4       0.9644
816           2      -409.1 +j    -48.3      412.0       0.9931
816           3      -381.8 +j     -6.7      381.9       0.9998
   TERMINAL TOTAL . -1308.3 +j   -196.8     1323.0       0.9889

ELEMENT = "Line.L25"
852R          1       309.2 +j     60.7      315.1       0.9813
852R          2       335.9 +j     34.2      337.7       0.9949
852R          3       344.5 +j      6.2      344.6       0.9998
   TERMINAL TOTAL .   989.7 +j    101.0      994.8       0.9948
832           1      -309.2 +j    -60.7      315.1       0.9813
832           2      -335.9 +j    -34.2      337.7       0.9949
832           3      -344.5 +j     -6.2      344.6       0.9998
   TERMINAL TOTAL .  -989.6 +j   -101.0      994.8       0.9948

ELEMENT = "Transformer.XFM1"
832           1       153.8 +j     85.7      176.1       0.8735
832           2       152.7 +j     83.4      174.0       0.8777
832           3       151.2 +j     83.4      172.7       0.8757
832           0         0.0 +j      0.0        0.0       1.0000
   TERMINAL TOTAL .   457.7 +j    252.5      522.7       0.8756
888           1      -150.6 +j    -78.8      170.0       0.8860
888           2      -149.5 +j    -76.5      167.9       0.8903
888           3      -148.0 +j    -76.6      166.7       0.8882
888           0         0.0 +j      0.0        0.0       1.0000
   TERMINAL TOTAL .  -448.1 +j   -231.8      504.5       0.8882

ELEMENT = "Line.L26"
854           2         2.0 +j     -2.9        3.5      -0.5729
   TERMINAL TOTAL .     2.0 +j     -2.9        3.5      -0.5729
856           2        -2.0 +j     -1.0        2.2       0.8944
   TERMINAL TOTAL .    -2.0 +j     -1.0        2.2       0.8944

ELEMENT = "Line.L27"
854           1       314.8 +j     54.0      319.4       0.9856
854           2       343.7 +j     29.6      344.9       0.9963
854           3       350.9 +j      2.3      350.9       1.0000
   TERMINAL TOTAL .  1009.3 +j     85.9     1013.0       0.9964
852           1      -309.2 +j    -60.7      315.1       0.9813
852           2      -336.0 +j    -34.2      337.7       0.9948
852           3      -344.5 +j     -6.3      344.6       0.9998
   TERMINAL TOTAL .  -989.7 +j   -101.2      994.9       0.9948

ELEMENT = "Line.L28"
858           1         1.0 +j      0.2        1.0       0.9793
   TERMINAL TOTAL .     1.0 +j      0.2        1.0       0.9793
864           1        -1.0 +j     -0.5        1.1       0.8944
   TERMINAL TOTAL .    -1.0 +j     -0.5        1.1       0.8944

ELEMENT = "Line.L29"
858           1       147.2 +j    -29.2      150.1      -0.9809
858           2       176.5 +j    -49.4      183.2      -0.9630
858           3       184.1 +j    -81.3      201.3      -0.9147
   TERMINAL TOTAL .   507.8 +j   -159.9      532.4      -0.9538
834           1      -147.1 +j     27.7      149.7      -0.9828
834           2      -176.0 +j     48.1      182.4      -0.9647
834           3      -183.9 +j     80.2      200.6      -0.9166
   TERMINAL TOTAL .  -507.0 +j    156.0      530.4      -0.9558

ELEMENT = "Line.L30"
860           1        38.5 +j     16.9       42.1       0.9153
860           2        67.4 +j     36.4       76.6       0.8799
860           3        32.5 +j     20.9       38.7       0.8412
   TERMINAL TOTAL .   138.5 +j     74.3      157.1       0.8812
836           1       -38.5 +j    -17.7       42.4       0.9091
836           2       -67.3 +j    -37.1       76.8       0.8760
836           3       -32.6 +j    -21.5       39.0       0.8343
   TERMINAL TOTAL .  -138.4 +j    -76.2      158.0       0.8759

ELEMENT = "Line.L31"
862           2        14.0 +j      6.1       15.3       0.9163
   TERMINAL TOTAL .    14.0 +j      6.1       15.3       0.9163
838           2       -14.0 +j     -7.0       15.7       0.8944
   TERMINAL TOTAL .   -14.0 +j     -7.0       15.7       0.8944

ELEMENT = "Line.L32"
888           1       150.6 +j     78.8      170.0       0.8860
888           2       149.5 +j     76.5      167.9       0.8903
888           3       148.0 +j     76.6      166.7       0.8882
   TERMINAL TOTAL .   448.1 +j    231.8      504.5       0.8882
890           1      -138.9 +j    -71.1      156.0       0.8903
890           2      -139.6 +j    -68.3      155.4       0.8982
890           3      -136.9 +j    -68.3      153.0       0.8947
   TERMINAL TOTAL .  -415.4 +j   -207.7      464.4       0.8944

ELEMENT = "Capacitor.C844"
844           1         0.0 +j   -109.2      109.2       1.0000
844           2         0.0 +j   -106.6      106.6       1.0000
844           3         0.0 +j   -106.8      106.8       1.0000
   TERMINAL TOTAL .     0.0 +j   -322.6      322.6       1.0000
844           0         0.0 +j      0.0        0.0       1.0000
844           0         0.0 +j      0.0        0.0       1.0000
844           0         0.0 +j      0.0        0.0       1.0000
   TERMINAL TOTAL .     0.0 +j      0.0        0.0       1.0000

ELEMENT = "Capacitor.C848"
848           1         0.0 +j   -163.9      163.9       1.0000
848           2         0.0 +j   -159.9      159.9       1.0000
848           3         0.0 +j   -160.4      160.4       1.0000
   TERMINAL TOTAL .     0.0 +j   -484.2      484.2       1.0000
848           0         0.0 +j      0.0        0.0       1.0000
848           0         0.0 +j      0.0        0.0       1.0000
848           0         0.0 +j      0.0        0.0       1.0000
   TERMINAL TOTAL .     0.0 +j      0.0        0.0       1.0000

ELEMENT = "Transformer.REG1A"
814           1       517.5 +j    142.0      536.7       0.9643
814           0         0.0 +j      0.0        0.0       1.0000
   TERMINAL TOTAL .   517.5 +j    142.0      536.7       0.9643
814R          1      -517.5 +j   -141.9      536.6       0.9644
814R          0         0.0 +j      0.0        0.0       1.0000
   TERMINAL TOTAL .  -517.5 +j   -141.9      536.6       0.9644

ELEMENT = "Transformer.REG1B"
814           2       409.3 +j     48.3      412.1       0.9931
814           0         0.0 +j      0.0        0.0       1.0000
   TERMINAL TOTAL .   409.3 +j     48.3      412.1       0.9931
814R          2      -409.2 +j    -48.2      412.1       0.9931
814R          0         0.0 +j      0.0        0.0       1.0000
   TERMINAL TOTAL .  -409.2 +j    -48.2      412.1       0.9931

ELEMENT = "Transformer.REG1C"
814           3       381.9 +j      6.7      382.0       0.9998
814           0         0.0 +j      0.0        0.0       1.0000
   TERMINAL TOTAL .   381.9 +j      6.7      382.0       0.9998
814R          3      -381.9 +j     -6.6      382.0       0.9998
814R          0         0.0 +j      0.0        0.0       1.0000
   TERMINAL TOTAL .  -381.9 +j     -6.6      382.0       0.9998

ELEMENT = "Transformer.REG2A"
852           1       309.2 +j     60.7      315.1       0.9813
852           0         0.0 +j      0.0        0.0       1.0000
   TERMINAL TOTAL .   309.2 +j     60.7      315.1       0.9813
852R          1      -309.2 +j    -60.7      315.1       0.9813
852R          0         0.0 +j      0.0        0.0       1.0000
   TERMINAL TOTAL .  -309.2 +j    -60.7      315.1       0.9813

ELEMENT = "Transformer.REG2B"
852           2       336.0 +j     34.2      337.7       0.9948
852           0         0.0 +j      0.0        0.0       1.0000
   TERMINAL TOTAL .   336.0 +j     34.2      337.7       0.9948
852R          2      -335.9 +j    -34.2      337.7       0.9949
852R          0         0.0 +j      0.0        0.0       1.0000
   TERMINAL TOTAL .  -335.9 +j    -34.2      337.7       0.9949

ELEMENT = "Transformer.REG2C"
852           3       344.5 +j      6.3      344.6       0.9998
852           0         0.0 +j      0.0        0.0       1.0000
   TERMINAL TOTAL .   344.5 +j      6.3      344.6       0.9998
852R          3      -344.5 +j     -6.2      344.6       0.9998
852R          0         0.0 +j      0.0        0.0       1.0000
   TERMINAL TOTAL .  -344.5 +j     -6.2      344.6       0.9998

= = = = = = = = = = = = = = = = = = =  = = = = = = = = = = =  = =

Power Conversion Elements

  Bus     Phase     kW   +j  kvar         kVA         PF

ELEMENT = "Load.S860"
860           1      20.0 +j   16.0       25.6       0.7809
860           2      20.0 +j   16.0       25.6       0.7809
860           3      20.0 +j   16.0       25.6       0.7809
860           0       0.0 +j    0.0        0.0       1.0000
  TERMINAL TOTAL  .    60.0 +j     48.0       76.8       0.7809

ELEMENT = "Load.S840"
840           1       9.4 +j    7.3       11.9       0.7894
840           2       9.3 +j    7.2       11.8       0.7894
840           3       9.3 +j    7.2       11.8       0.7893
840           0       0.0 +j    0.0        0.0       1.0000
  TERMINAL TOTAL  .    28.0 +j     21.8       35.4       0.7894

ELEMENT = "Load.S844"
844           1     147.4 +j  114.7      186.7       0.7894
844           2     143.9 +j  111.9      182.3       0.7894
844           3     144.2 +j  112.2      182.7       0.7893
844           0       0.0 +j    0.0        0.0       1.0000
  TERMINAL TOTAL  .   435.6 +j    338.8      551.8       0.7894

ELEMENT = "Load.S848"
848           1      20.0 +j   16.3       25.8       0.7746
848           2      20.1 +j   15.7       25.5       0.7868
848           3      19.9 +j   15.9       25.5       0.7812
  TERMINAL TOTAL  .    60.0 +j     48.0       76.8       0.7809

ELEMENT = "Load.S830A"
830           1       6.5 +j   -0.3        6.5      -0.9986
830           2       3.6 +j    5.4        6.5       0.5551
  TERMINAL TOTAL  .    10.1 +j      5.1       11.3       0.8944

ELEMENT = "Load.S830B"
830           2       6.4 +j   -0.4        6.4      -0.9979
830           3       3.5 +j    5.4        6.4       0.5461
  TERMINAL TOTAL  .     9.9 +j      5.0       11.1       0.8944

ELEMENT = "Load.S830C"
830           3      15.4 +j   -2.3       15.6      -0.9894
830           1       9.7 +j   12.3       15.7       0.6192
  TERMINAL TOTAL  .    25.1 +j     10.1       27.1       0.9285

ELEMENT = "Load.S890"
890           1     138.9 +j   71.1      156.1       0.8903
890           2     139.6 +j   68.3      155.4       0.8982
890           3     136.9 +j   68.3      153.0       0.8947
  TERMINAL TOTAL  .   415.4 +j    207.7      464.4       0.8944

ELEMENT = "Load.D802_806SB"
802           2      15.0 +j    7.5       16.8       0.8944
802           0       0.0 +j    0.0        0.0       1.0000
  TERMINAL TOTAL  .    15.0 +j      7.5       16.8       0.8944

ELEMENT = "Load.D802_806RB"
806           2      15.0 +j    7.5       16.8       0.8944
806           0       0.0 +j    0.0        0.0       1.0000
  TERMINAL TOTAL  .    15.0 +j      7.5       16.8       0.8944

ELEMENT = "Load.D802_806SC"
802           3      12.5 +j    7.0       14.3       0.8725
802           0       0.0 +j    0.0        0.0       1.0000
  TERMINAL TOTAL  .    12.5 +j      7.0       14.3       0.8725

ELEMENT = "Load.D802_806RC"
806           3      12.5 +j    7.0       14.3       0.8725
806           0       0.0 +j    0.0        0.0       1.0000
  TERMINAL TOTAL  .    12.5 +j      7.0       14.3       0.8725

ELEMENT = "Load.D808_810SB"
808           2       8.3 +j    4.3        9.3       0.8879
808           0       0.0 +j    0.0        0.0       1.0000
  TERMINAL TOTAL  .     8.3 +j      4.3        9.3       0.8879

ELEMENT = "Load.D808_810RB"
810           2       8.3 +j    4.3        9.3       0.8879
810           0       0.0 +j    0.0        0.0       1.0000
  TERMINAL TOTAL  .     8.3 +j      4.3        9.3       0.8879

ELEMENT = "Load.D818_820SA"
818           1      17.8 +j    8.9       19.9       0.8944
818           0       0.0 +j    0.0        0.0       1.0000
  TERMINAL TOTAL  .    17.8 +j      8.9       19.9       0.8944

ELEMENT = "Load.D818_820RA"
820           1      17.0 +j    8.5       19.0       0.8944
820           0       0.0 +j    0.0        0.0       1.0000
  TERMINAL TOTAL  .    17.0 +j      8.5       19.0       0.8944

ELEMENT = "Load.D820_822SA"
820           1      67.5 +j   35.0       76.0       0.8878
820           0       0.0 +j    0.0        0.0       1.0000
  TERMINAL TOTAL  .    67.5 +j     35.0       76.0       0.8878

ELEMENT = "Load.D820_822RA"
822           1      67.5 +j   35.0       76.0       0.8878
822           0       0.0 +j    0.0        0.0       1.0000
  TERMINAL TOTAL  .    67.5 +j     35.0       76.0       0.8878

ELEMENT = "Load.D816_824SB"
816           2       1.6 +j   -0.2        1.6      -0.9890
816           3       1.0 +j    1.2        1.6       0.6129
  TERMINAL TOTAL  .     2.5 +j      1.0        2.7       0.9285

ELEMENT = "Load.D816_824RB"
824           2       1.6 +j   -0.2        1.6      -0.9889
824           3       1.0 +j    1.2        1.6       0.6133
  TERMINAL TOTAL  .     2.5 +j      1.0        2.7       0.9285

ELEMENT = "Load.D824_826SB"
824           2      20.3 +j   10.1       22.7       0.8944
824           0       0.0 +j    0.0        0.0       1.0000
  TERMINAL TOTAL  .    20.3 +j     10.1       22.7       0.8944

ELEMENT = "Load.D824_826RB"
826           2      20.3 +j   10.1       22.6       0.8944
826           0       0.0 +j    0.0        0.0       1.0000
  TERMINAL TOTAL  .    20.3 +j     10.1       22.6       0.8944

ELEMENT = "Load.D824_828SC"
824           3       2.0 +j    1.0        2.2       0.8944
824           0       0.0 +j    0.0        0.0       1.0000
  TERMINAL TOTAL  .     2.0 +j      1.0        2.2       0.8944

ELEMENT = "Load.D824_828RC"
828           3       2.0 +j    1.0        2.2       0.8944
828           0       0.0 +j    0.0        0.0       1.0000
  TERMINAL TOTAL  .     2.0 +j      1.0        2.2       0.8944

ELEMENT = "Load.D828_830SA"
828           1       3.5 +j    1.5        3.8       0.9191
828           0       0.0 +j    0.0        0.0       1.0000
  TERMINAL TOTAL  .     3.5 +j      1.5        3.8       0.9191

ELEMENT = "Load.D828_830RA"
830           1       3.5 +j    1.5        3.8       0.9191
830           0       0.0 +j    0.0        0.0       1.0000
  TERMINAL TOTAL  .     3.5 +j      1.5        3.8       0.9191

ELEMENT = "Load.D854_856SB"
854           2       2.0 +j    1.0        2.2       0.8944
854           0       0.0 +j    0.0        0.0       1.0000
  TERMINAL TOTAL  .     2.0 +j      1.0        2.2       0.8944

ELEMENT = "Load.D854_856RB"
856           2       2.0 +j    1.0        2.2       0.8944
856           0       0.0 +j    0.0        0.0       1.0000
  TERMINAL TOTAL  .     2.0 +j      1.0        2.2       0.8944

ELEMENT = "Load.D832_858SA"
832           1       1.3 +j    0.5        1.4       0.9191
832           0       0.0 +j    0.0        0.0       1.0000
  TERMINAL TOTAL  .     1.3 +j      0.5        1.4       0.9191

ELEMENT = "Load.D832_858RA"
858           1       1.3 +j    0.5        1.4       0.9191
858           0       0.0 +j    0.0        0.0       1.0000
  TERMINAL TOTAL  .     1.3 +j      0.5        1.4       0.9191

ELEMENT = "Load.D832_858SB"
832           2       0.4 +j    0.2        0.4       0.8944
832           0       0.0 +j    0.0        0.0       1.0000
  TERMINAL TOTAL  .     0.4 +j      0.2        0.4       0.8944

ELEMENT = "Load.D832_858RB"
858           2       0.4 +j    0.2        0.4       0.8944
858           0       0.0 +j    0.0        0.0       1.0000
  TERMINAL TOTAL  .     0.4 +j      0.2        0.4       0.8944

ELEMENT = "Load.D832_858SC"
832           3       1.1 +j    0.5        1.2       0.8944
832           0       0.0 +j    0.0        0.0       1.0000
  TERMINAL TOTAL  .     1.1 +j      0.5        1.2       0.8944

ELEMENT = "Load.D832_858RC"
858           3       1.1 +j    0.5        1.2       0.8944
858           0       0.0 +j    0.0        0.0       1.0000
  TERMINAL TOTAL  .     1.1 +j      0.5        1.2       0.8944

ELEMENT = "Load.D858_864SB"
858           1       1.0 +j    0.5        1.1       0.8944
858           0       0.0 +j    0.0        0.0       1.0000
  TERMINAL TOTAL  .     1.0 +j      0.5        1.1       0.8944

ELEMENT = "Load.D858_864RB"
864           1       1.0 +j    0.5        1.1       0.8944
864           0       0.0 +j    0.0        0.0       1.0000
  TERMINAL TOTAL  .     1.0 +j      0.5        1.1       0.8944

ELEMENT = "Load.D858_834SA"
858           1       1.3 +j   -0.1        1.3      -0.9989
858           2       0.7 +j    1.1        1.3       0.5561
  TERMINAL TOTAL  .     2.0 +j      1.0        2.2       0.8944

ELEMENT = "Load.D858_834RA"
834           1       1.3 +j   -0.1        1.3      -0.9989
834           2       0.7 +j    1.1        1.3       0.5563
  TERMINAL TOTAL  .     2.0 +j      1.0        2.2       0.8944

ELEMENT = "Load.D858_834SB"
858           2       4.9 +j   -0.2        4.9      -0.9993
858           3       2.6 +j    4.2        4.9       0.5250
  TERMINAL TOTAL  .     7.5 +j      4.0        8.5       0.8824

ELEMENT = "Load.D858_834RB"
834           2       4.9 +j   -0.2        4.9      -0.9993
834           3       2.6 +j    4.2        4.9       0.5252
  TERMINAL TOTAL  .     7.5 +j      4.0        8.5       0.8824

ELEMENT = "Load.D858_834SC"
858           3       4.2 +j   -0.2        4.3      -0.9993
858           1       2.3 +j    3.7        4.3       0.5242
  TERMINAL TOTAL  .     6.5 +j      3.5        7.4       0.8805

ELEMENT = "Load.D858_834RC"
...