CBA2026/Algoritimo/34Bus/ieee34-1_VLN_Node.Txt

LINE-GROUND and LINE-LINE VOLTAGES BY BUS & NODE

Bus       Node    VLN (kV)   Angle      pu     Base kV    Node-Node   VLL (kV)  Angle      pu

SOURCEBUS 1       41.829 /_   30.0      1.05    69.000        1-2      72.45 /_   60.0      1.05
   -      2       41.829 /_  -90.0      1.05    69.000        2-3      72.45 /_  -60.0      1.05
   -      3       41.829 /_  150.0      1.05    69.000        3-1      72.45 /_  180.0      1.05
800 ..... 1       15.095 /_    0.0      1.05    24.900        1-2     26.145 /_   30.0      1.05
   -      2       15.095 /_ -120.0      1.05    24.900        2-3     26.145 /_  -90.0      1.05
   -      3       15.095 /_  120.0      1.05    24.900        3-1     26.145 /_  150.0      1.05
802 ..... 1       15.067 /_    0.0    1.0481    24.900        1-2      26.11 /_   30.0    1.0486
   -      2       15.079 /_ -120.1    1.0489    24.900        2-3     26.117 /_  -90.0    1.0489
   -      3        15.08 /_  120.0     1.049    24.900        3-1     26.108 /_  150.0    1.0485
806 ..... 1       15.048 /_   -0.1    1.0468    24.900        1-2     26.086 /_   30.0    1.0476
   -      2        15.07 /_ -120.1    1.0482    24.900        2-3     26.099 /_  -90.1    1.0481
   -      3       15.071 /_  119.9    1.0483    24.900        3-1     26.084 /_  149.9    1.0476
808 ..... 1       14.696 /_   -0.5    1.0223    24.900        1-2     25.657 /_   29.6    1.0304
   -      2       14.901 /_ -120.7    1.0365    24.900        2-3     25.778 /_  -90.6    1.0353
   -      3       14.904 /_  119.5    1.0367    24.900        3-1     25.643 /_  149.3    1.0298
810 ..... 2       14.898 /_ -120.7    1.0363    24.900
812 ..... 1       14.285 /_   -1.1   0.99367    24.900        1-2     25.161 /_   29.2    1.0105
   -      2       14.718 /_ -121.4    1.0238    24.900        2-3     25.413 /_  -91.2    1.0206
   -      3       14.703 /_  119.1    1.0227    24.900        3-1     25.127 /_  148.5    1.0091
814 ..... 1       13.957 /_   -1.5   0.97088    24.900        1-2     24.765 /_   29.0   0.99457
   -      2       14.573 /_ -122.0    1.0137    24.900        2-3     25.122 /_  -91.6    1.0089
   -      3       14.541 /_  118.8    1.0114    24.900        3-1     24.716 /_  147.9   0.99261
814R .... 1        14.74 /_   -1.5    1.0253    24.900        1-2     25.519 /_   28.2    1.0249
   -      2       14.663 /_ -122.0      1.02    24.900        2-3     25.277 /_  -91.7    1.0151
   -      3        14.63 /_  118.7    1.0177    24.900        3-1     25.471 /_  148.7    1.0229
850 ..... 1        14.74 /_   -1.5    1.0253    24.900        1-2     25.519 /_   28.2    1.0249
   -      2       14.663 /_ -122.0      1.02    24.900        2-3     25.276 /_  -91.7    1.0151
   -      3        14.63 /_  118.7    1.0177    24.900        3-1     25.471 /_  148.7    1.0229
816 ..... 1       14.735 /_   -1.5     1.025    24.900        1-2     25.513 /_   28.2    1.0246
   -      2       14.661 /_ -122.0    1.0198    24.900        2-3     25.272 /_  -91.7    1.0149
   -      3       14.628 /_  118.7    1.0175    24.900        3-1     25.465 /_  148.7    1.0227
818 ..... 1       14.722 /_   -1.5    1.0241    24.900
824 ..... 1       14.647 /_   -1.6    1.0188    24.900        1-2     25.366 /_   28.0    1.0187
   -      2       14.563 /_ -122.1     1.013    24.900        2-3     25.121 /_  -91.8    1.0089
   -      3       14.548 /_  118.6     1.012    24.900        3-1     25.303 /_  148.6    1.0162
820 ..... 1       14.384 /_   -1.6    1.0005    24.900
822 ..... 1        14.34 /_   -1.6    0.9975    24.900
826 ..... 2        14.56 /_ -122.1    1.0128    24.900
828 ..... 1        14.64 /_   -1.6    1.0183    24.900        1-2     25.355 /_   28.0    1.0183
   -      2       14.556 /_ -122.2    1.0125    24.900        2-3      25.11 /_  -91.8    1.0084
   -      3       14.541 /_  118.5    1.0115    24.900        3-1      25.29 /_  148.6    1.0156
830 ..... 1       14.466 /_   -1.7    1.0062    24.900        1-2      25.08 /_   27.8    1.0072
   -      2       14.388 /_ -122.5    1.0008    24.900        2-3      24.83 /_  -92.1    0.9972
   -      3       14.379 /_  118.2    1.0002    24.900        3-1     24.969 /_  148.3    1.0028
854 ..... 1       14.462 /_   -1.7     1.006    24.900        1-2     25.074 /_   27.8     1.007
   -      2       14.384 /_ -122.5    1.0005    24.900        2-3     24.824 /_  -92.1   0.99693
   -      3       14.375 /_  118.2    0.9999    24.900        3-1     24.961 /_  148.3    1.0025
832 ..... 1       15.053 /_   -1.9    1.0471    24.900        1-2      26.06 /_   27.3    1.0466
   -      2       14.882 /_ -123.0    1.0352    24.900        2-3     25.709 /_  -92.7    1.0325
   -      3       14.888 /_  117.6    1.0356    24.900        3-1     25.865 /_  148.0    1.0388
858 ..... 1       15.037 /_   -2.0     1.046    24.900        1-2     26.035 /_   27.3    1.0456
   -      2       14.864 /_ -123.0     1.034    24.900        2-3     25.684 /_  -92.8    1.0315
   -      3       14.873 /_  117.5    1.0346    24.900        3-1     25.833 /_  147.9    1.0375
834 ..... 1        15.02 /_   -2.0    1.0448    24.900        1-2     26.007 /_   27.2    1.0445
   -      2       14.844 /_ -123.1    1.0326    24.900        2-3     25.655 /_  -92.8    1.0303
   -      3       14.858 /_  117.4    1.0335    24.900        3-1     25.797 /_  147.9     1.036
860 ..... 1       15.014 /_   -2.0    1.0444    24.900        1-2     25.997 /_   27.2    1.0441
   -      2       14.838 /_ -123.1    1.0321    24.900        2-3     25.646 /_  -92.8      1.03
   -      3       14.852 /_  117.4    1.0331    24.900        3-1     25.786 /_  147.9    1.0356
842 ..... 1        15.02 /_   -2.0    1.0448    24.900        1-2     26.007 /_   27.2    1.0445
   -      2       14.844 /_ -123.1    1.0325    24.900        2-3     25.656 /_  -92.9    1.0303
   -      3       14.858 /_  117.4    1.0335    24.900        3-1     25.797 /_  147.9     1.036
836 ..... 1       15.011 /_   -2.0    1.0441    24.900        1-2      25.99 /_   27.2    1.0438
   -      2       14.833 /_ -123.1    1.0318    24.900        2-3     25.639 /_  -92.8    1.0297
   -      3        14.85 /_  117.4     1.033    24.900        3-1     25.781 /_  147.9    1.0354
840 ..... 1        15.01 /_   -2.0    1.0441    24.900        1-2      25.99 /_   27.2    1.0438
   -      2       14.832 /_ -123.1    1.0317    24.900        2-3     25.638 /_  -92.8    1.0297
   -      3        14.85 /_  117.4     1.033    24.900        3-1      25.78 /_  147.9    1.0354
862 ..... 1       15.011 /_   -2.0    1.0441    24.900        1-2      25.99 /_   27.2    1.0438
   -      2       14.832 /_ -123.1    1.0317    24.900        2-3     25.639 /_  -92.8    1.0297
   -      3       14.851 /_  117.4     1.033    24.900        3-1     25.781 /_  147.9    1.0354
844 ..... 1       15.022 /_   -2.0    1.0449    24.900        1-2     26.008 /_   27.2    1.0445
   -      2       14.844 /_ -123.1    1.0325    24.900        2-3     25.657 /_  -92.9    1.0304
   -      3        14.86 /_  117.4    1.0336    24.900        3-1       25.8 /_  147.9    1.0361
846 ..... 1       15.026 /_   -2.1    1.0452    24.900        1-2     26.012 /_   27.2    1.0447
   -      2       14.843 /_ -123.2    1.0325    24.900        2-3     25.661 /_  -92.9    1.0305
   -      3       14.864 /_  117.3    1.0339    24.900        3-1     25.806 /_  147.8    1.0364
848 ..... 1       15.026 /_   -2.1    1.0452    24.900        1-2     26.013 /_   27.2    1.0447
   -      2       14.844 /_ -123.2    1.0325    24.900        2-3     25.662 /_  -92.9    1.0306
   -      3       14.864 /_  117.3     1.034    24.900        3-1     25.807 /_  147.8    1.0364
852R .... 1       15.053 /_   -1.9    1.0471    24.900        1-2      26.06 /_   27.3    1.0466
   -      2       14.882 /_ -123.0    1.0352    24.900        2-3      25.71 /_  -92.7    1.0325
   -      3       14.888 /_  117.6    1.0356    24.900        3-1     25.865 /_  148.0    1.0388
888 ..... 1       2.4274 /_   -3.5    1.0107     4.160        1-2     4.2027 /_   25.8    1.0103
   -      2       2.3994 /_ -124.5   0.99903     4.160        2-3     4.1451 /_  -94.2   0.99641
   -      3       2.4008 /_  116.0   0.99959     4.160        3-1     4.1706 /_  146.5    1.0026
856 ..... 2       14.383 /_ -122.5    1.0005    24.900
852 ..... 1       14.169 /_   -1.9   0.98561    24.900        1-2     24.601 /_   27.5   0.98801
   -      2       14.091 /_ -123.0   0.98016    24.900        2-3     24.342 /_  -92.7    0.9776
   -      3       14.096 /_  117.6   0.98052    24.900        3-1     24.417 /_  147.9   0.98062
864 ..... 1       15.037 /_   -2.0     1.046    24.900
838 ..... 2        14.83 /_ -123.1    1.0316    24.900
890 ..... 1        2.228 /_   -4.0   0.92763     4.160        1-2      3.882 /_   25.2   0.93318
   -      2         2.22 /_ -125.6   0.92432     4.160        2-3     3.8159 /_  -95.3   0.91729
   -      3       2.2034 /_  115.2   0.91741     4.160        3-1     3.8222 /_  145.8    0.9188
